/*--------------------------------*- C++ -*----------------------------------*\
| =========                 |                                                 |
| \\      /  F ield         | OpenFOAM: The Open Source CFD Toolbox           |
|  \\    /   O peration     | Version:  plus                                  |
|   \\  /    A nd           | Web:      www.OpenFOAM.com                      |
|    \\/     M anipulation  |                                                 |
\*---------------------------------------------------------------------------*/
FoamFile
{
    version     2.0;
    format      ascii;
    class       dictionary;
    object      blockMeshDict;
}
// * * * * * * * * * * * * * * * * * * * * * * * * * * * * * * * * * * * * * //

convertToMeters 0.001;

vertices
(
    (-500 100 0)
    (-300 100 0)
    (0 100 0)
    (300 100 0)
    (500 100 0)
    (-500 50 0)
    (-300 50 0)
    (0 50 0)
    (300 50 0)
    (500 50 0)
    (-300 0 0)
    (0 0 0)
    (300 0 0)
    (-500 100 5)
    (-300 100 5)
    (0 100 5)
    (300 100 5)
    (500 100 5)
    (-500 50 5)
    (-300 50 5)
    (0 50 5)
    (300 50 5)
    (500 50 5)
    (-300 0 5)
    (0 0 5)
    (300 0 5)
);

blocks
(
    hex (5 6 1 0 18 19 14 13) (10 10 1) simpleGrading (1 1 1)
    hex (6 7 2 1 19 20 15 14) (10 10 1) simpleGrading (1 1 1)
    hex (7 8 3 2 20 21 16 15) (10 10 1) simpleGrading (1 1 1)
    hex (8 9 4 3 21 22 17 16) (10 10 1) simpleGrading (1 1 1)
    hex (10 11 7 6 23 24 20 19) (10 10 1) simpleGrading (1 1 1)
    hex (11 12 8 7 24 25 21 20) (10 10 1) simpleGrading (1 1 1)
);

edges
(
);

boundary
(
    inlet
    {
        type patch;
        faces
        (
            (5 18 13 0)
        );
    }
    outlet
    {
        type patch;
        faces
        (
            (9 4 17 22)
        );
    }
    upperWall
    {
        type wall;
        faces
        (
            (0 13 14 1)
            (1 14 15 2)
            (2 15 16 3)
			(3 16 17 4)
        );
    }
    lowerWall
    {
        type wall;
        faces
        (
            (5 6 19 18)
            (10 23 19 6)
            (10 11 24 23)
            (11 12 25 24)
            (12 8 21 25)
			(8 9 22 21)
        );
    }
    frontAndBack
    {
        type empty;
        faces
        (
            (5 0 1 6)
			(6 1 2 7)
			(7 2 3 8)
			(8 3 4 9)
			(10 6 7 11)
			(11 7 8 12)
			(18 13 14 19)
			(19 14 15 20)
			(20 15 16 21)
			(21 16 17 22)
			(23 19 20 24)
			(24 20 21 25)
        );
    }
);

mergePatchPairs
(
);

// ************************************************************************* //
